1
9
.tran 1m 2m 1m{return}{return}
1
1
OUT
V
